<?xml version="1.0" encoding="UTF-8"?>

<!-- generated on 2026-05-05 02:59:39 by 
<configuration xmlns:xsi="http://www.w3.org/2001/XMLSchema-instance" xsi:noNamespaceSchemaLocation="http://sumo.dlr.de/xsd/Configuration.xsd">

    <input>
        <osm-files value="TRUE"/>
    </input>

    <output>
        <opendrive-output value="TRUE"/>
    </output>

    <projection>
        <proj value="+proj=tmerc"/>
    </projection>

    <processing>
        <geometry.remove value="true"/>
        <roundabouts.guess value="true"/>
        <edges.join value="true"/>
    </processing>

    <building_defaults>
        <default.lanewidth value="3.350000"/>
        <default.sidewalk-width value="2.800000"/>
    </building_defaults>

    <tls_building>
        <tls.group-signals value="true"/>
    </tls_building>

    <ramp_guessing>
        <ramps.guess value="true"/>
    </ramp_guessing>

    <edge_removal>
        <keep-edges.by-type value="highway.motorway,highway.motorway_link,highway.trunk,highway.trunk_link,highway.primary,highway.primary_link,highway.secondary,highway.secondary_link,highway.tertiary,highway.tertiary_link,highway.unclassified,highway.residential,"/>
    </edge_removal>

    <junctions>
        <junctions.join value="true"/>
    </junctions>

    <pedestrian>
        <sidewalks.guess value="true"/>
    </pedestrian>

    <formats>
        <osm.sidewalks value="true"/>
        <osm.crossings value="true"/>
    </formats>

    <report>
        <aggregate-warnings value="5"/>
    </report>

</configuration>
-->

<OpenDRIVE>
    <header revMajor="1" revMinor="4" name="" version="1.00" date="Tue May  5 02:59:39 2026" north="578.12" south="0.00" east="595.87" west="0.00">
        <geoReference>
 <![CDATA[
 +proj=tmerc
]]>
        </geoReference>
        <offset x="-861520.20" y="-5403084.18" z="0.00" hdg="0"/>
    </header>
    <road name="Garchinger Straße" length="102.19361746" id="260" junction="-1">
        <link>
            <predecessor elementType="junction" elementId="1"/>
            <successor elementType="junction" elementId="2"/>
        </link>
        <type s="0" type="town"/>
        <planView>
            <geometry s="0.00000000" x="473.79625542" y="485.47728759" hdg="1.12549902" length="23.08791146">
                <line/>
            </geometry>
            <geometry s="23.08791146" x="483.74082400" y="506.31372709" hdg="1.12549902" length="8.33319522">
                <paramPoly3 aU="0.00000000" bU="6.24986922" cU="6.24986922" dU="-4.16675384" aV="0.00000000" bV="0.00000000" cV="0.08086282" dV="-0.02695540" pRange="normalized"/>
            </geometry>
            <geometry s="31.42110669" x="487.28140836" y="513.85732045" hdg="1.13843717" length="70.77251077">
                <line/>
            </geometry>
        </planView>
        <elevationProfile>
            <elevation s="0" a="0.00" b="0" c="0" d="0"/>
        </elevationProfile>
        <lateralProfile/>
        <lanes>
            <laneSection s="0">
                <center>
                    <lane id="0" type="none" level="true">
                        <link/>
                        <roadMark sOffset="0" type="solid" weight="standard" color="standard" width="0.13" laneChange="none"/>
                    </lane>
                </center>
                <right>
                    <lane id="-1" type="driving" level="true">
                        <link/>
                        <width sOffset="0" a="3.35" b="0" c="0" d="0"/>
                        <roadMark sOffset="0" type="solid" weight="standard" color="standard" width="0.13" laneChange="none"/>
                        <speed sOffset="0" max="8.33"/>
                    </lane>
                    <lane id="-2" type="sidewalk" level="true">
                        <link/>
                        <width sOffset="0" a="2.80" b="0" c="0" d="0"/>
                        <roadMark sOffset="0" type="solid" weight="standard" color="standard" width="0.13" laneChange="none"/>
                        <speed sOffset="0" max="8.33"/>
                    </lane>
                 </right>
            </laneSection>
        </lanes>
        <objects/>
    </road>
    <road name="Garchinger Straße" length="55.95534515" id="261" junction="-1">
        <link>
            <predecessor elementType="junction" elementId="3"/>
            <successor elementType="junction" elementId="1"/>
        </link>
        <type s="0" type="town"/>
        <planView>
            <geometry s="0.00000000" x="445.74153374" y="426.72163478" hdg="1.13050833" length="1.31786059">
                <line/>
            </geometry>
            <geometry s="1.31786059" x="446.30320594" y="427.91380962" hdg="1.13050833" length="8.33330657">
                <paramPoly3 aU="0.00000000" bU="6.24997466" cU="6.24997466" dU="-4.16668356" aV="0.00000000" bV="0.00000000" cV="-0.03559622" dV="0.01186550" pRange="normalized"/>
            </geometry>
            <geometry s="9.65116716" x="449.87631141" y="435.44220910" hdg="1.12481293" length="46.30417799">
                <line/>
            </geometry>
        </planView>
        <elevationProfile>
            <elevation s="0" a="0.00" b="0" c="0" d="0"/>
        </elevationProfile>
        <lateralProfile/>
        <lanes>
            <laneSection s="0">
                <center>
                    <lane id="0" type="none" level="true">
                        <link/>
                        <roadMark sOffset="0" type="solid" weight="standard" color="standard" width="0.13" laneChange="none"/>
                    </lane>
                </center>
                <right>
                    <lane id="-1" type="driving" level="true">
                        <link/>
                        <width sOffset="0" a="3.35" b="0" c="0" d="0"/>
                        <roadMark sOffset="0" type="solid" weight="standard" color="standard" width="0.13" laneChange="none"/>
                        <speed sOffset="0" max="8.33"/>
                    </lane>
                    <lane id="-2" type="sidewalk" level="true">
                        <link/>
                        <width sOffset="0" a="2.80" b="0" c="0" d="0"/>
                        <roadMark sOffset="0" type="solid" weight="standard" color="standard" width="0.13" laneChange="none"/>
                        <speed sOffset="0" max="8.33"/>
                    </lane>
                 </right>
            </laneSection>
        </lanes>
        <objects/>
    </road>
    <road name="Fröttmaninger Straße" length="0.20000000" id="262" junction="-1">
        <link>
            <predecessor elementType="junction" elementId="4"/>
            <successor elementType="junction" elementId="5"/>
        </link>
        <type s="0" type="town"/>
        <planView>
            <geometry s="0.00000000" x="501.74385361" y="381.62730763" hdg="-0.44135013" length="0.20000000">
                <line/>
            </geometry>
        </planView>
        <elevationProfile>
            <elevation s="0" a="0.00" b="0" c="0" d="0"/>
        </elevationProfile>
        <lateralProfile/>
        <lanes>
            <laneSection s="0">
                <center>
                    <lane id="0" type="none" level="true">
                        <link/>
                        <roadMark sOffset="0" type="solid" weight="standard" color="standard" width="0.13" laneChange="none"/>
                    </lane>
                </center>
                <right>
                    <lane id="-1" type="driving" level="true">
                        <link/>
                        <width sOffset="0" a="3.35" b="0" c="0" d="0"/>
                        <roadMark sOffset="0" type="solid" weight="standard" color="standard" width="0.13" laneChange="none"/>
                        <speed sOffset="0" max="8.33"/>
                    </lane>
                    <lane id="-2" type="sidewalk" level="true">
                        <link/>
                        <width sOffset="0" a="2.80" b="0" c="0" d="0"/>
                        <roadMark sOffset="0" type="solid" weight="standard" color="standard" width="0.13" laneChange="none"/>
                        <speed sOffset="0" max="8.33"/>
                    </lane>
                 </right>
            </laneSection>
        </lanes>
        <objects>
            <object id=":372815582_c0" type="crosswalk" name="" s="0.00000000" t="0.00000000" hdg="0.44135013">
                <outline id="0" fillType="concrete" outer="true" closed="false" laneType="border">
                    <cornerLocal u="-0.97890014" v="-3.24256912" z="0.00000000" height="0.00000000" id="0"/>
                    <cornerLocal u="1.88307591" v="2.81540852" z="0.00000000" height="0.00000000" id="1"/>
                    <cornerLocal u="0.97890014" v="3.24256912" z="0.00000000" height="0.00000000" id="2"/>
                    <cornerLocal u="-1.88307591" v="-2.81540852" z="0.00000000" height="0.00000000" id="3"/>
                </outline>
            </object>
        </objects>
    </road>
    <road name="Fröttmaninger Straße" length="58.64867790" id="263" junction="-1">
        <link>
            <predecessor elementType="junction" elementId="3"/>
            <successor elementType="junction" elementId="4"/>
        </link>
        <type s="0" type="town"/>
        <planView>
            <geometry s="0.00000000" x="446.45306459" y="410.11514792" hdg="-0.47666026" length="58.64867790">
                <line/>
            </geometry>
        </planView>
        <elevationProfile>
            <elevation s="0" a="0.00" b="0" c="0" d="0"/>
        </elevationProfile>
        <lateralProfile/>
        <lanes>
            <laneSection s="0">
                <center>
                    <lane id="0" type="none" level="true">
                        <link/>
                        <roadMark sOffset="0" type="solid" weight="standard" color="standard" width="0.13" laneChange="none"/>
                    </lane>
                </center>
                <right>
                    <lane id="-1" type="driving" level="true">
                        <link/>
                        <width sOffset="0" a="3.35" b="0" c="0" d="0"/>
                        <roadMark sOffset="0" type="solid" weight="standard" color="standard" width="0.13" laneChange="none"/>
                        <speed sOffset="0" max="8.33"/>
                    </lane>
                    <lane id="-2" type="sidewalk" level="true">
                        <link/>
                        <width sOffset="0" a="2.80" b="0" c="0" d="0"/>
                        <roadMark sOffset="0" type="solid" weight="standard" color="standard" width="0.13" laneChange="none"/>
                        <speed sOffset="0" max="8.33"/>
                    </lane>
                 </right>
            </laneSection>
        </lanes>
        <objects/>
    </road>
    <road name="Fröttmaninger Straße" length="122.28169727" id="264" junction="-1">
        <link>
            <predecessor elementType="junction" elementId="6"/>
            <successor elementType="junction" elementId="3"/>
        </link>
        <type s="0" type="town"/>
        <planView>
            <geometry s="0.00000000" x="316.55816877" y="478.74388468" hdg="-0.43908617" length="0.20000000">
                <line/>
            </geometry>
            <geometry s="0.20000000" x="316.73919687" y="478.65886218" hdg="-0.43908617" length="5.63850897">
                <paramPoly3 aU="0.00000000" bU="4.22888134" cU="4.22886835" dU="-2.81924729" aV="0.00000000" bV="0.00000000" cV="0.01817584" dV="-0.00991274" pRange="normalized"/>
            </geometry>
            <geometry s="5.83850897" x="321.84634662" y="476.26934359" hdg="-0.43752229" length="1.32341827">
                <paramPoly3 aU="0.00000000" bU="0.99256369" cU="0.99256334" dU="-0.66170889" aV="0.00000000" bV="-0.00000000" cV="0.00168513" dV="-0.00113027" pRange="normalized"/>
            </geometry>
            <geometry s="7.16192723" x="323.04533947" y="475.70911862" hdg="-0.43754299" length="8.33333227">
                <paramPoly3 aU="0.00000000" bU="6.24999919" cU="6.24999942" dU="-4.16666638" aV="0.00000000" bV="0.00000000" cV="0.00017781" dV="-0.00076006" pRange="normalized"/>
            </geometry>
            <geometry s="15.49525951" x="330.59338733" y="472.17763169" hdg="-0.43785092" length="7.29964066">
                <paramPoly3 aU="0.00000000" bU="5.47473047" cU="5.47472968" dU="-3.64981979" aV="0.00000000" bV="0.00000000" cV="-0.00557232" dV="0.00358848" pRange="normalized"/>
            </geometry>
            <geometry s="22.79490016" x="337.20357461" y="469.08083055" hdg="-0.43792019" length="8.33333280">
                <paramPoly3 aU="0.00000000" bU="6.24999955" cU="6.25000013" dU="-4.16666707" aV="0.00000000" bV="0.00000000" cV="0.00095168" dV="0.00052656" pRange="normalized"/>
            </geometry>
            <geometry s="31.12823297" x="344.75116398" y="465.54836268" hdg="-0.43736290" length="9.03388939">
                <line/>
            </geometry>
            <geometry s="40.16212236" x="352.93470926" y="461.72204013" hdg="-0.43736290" length="8.33333293">
                <paramPoly3 aU="0.00000000" bU="6.24999966" cU="6.24999901" dU="-4.16666625" aV="0.00000000" bV="0.00000000" cV="-0.00526339" dV="0.00250041" pRange="normalized"/>
            </geometry>
            <geometry s="48.49545529" x="360.48246949" y="458.18993704" hdg="-0.43784699" length="7.10006051">
                <paramPoly3 aU="0.00000000" bU="5.32504537" cU="5.32504506" dU="-3.55003005" aV="0.00000000" bV="0.00000000" cV="-0.00331152" dV="0.00204042" pRange="normalized"/>
            </geometry>
            <geometry s="55.59551580" x="366.91221822" y="455.17842739" hdg="-0.43794122" length="8.33333324">
                <paramPoly3 aU="0.00000000" bU="6.24999992" cU="6.25000002" dU="-4.16666674" aV="0.00000000" bV="0.00000000" cV="0.00037312" dV="0.00022895" pRange="normalized"/>
            </geometry>
            <geometry s="63.92884904" x="374.45936226" y="451.64500702" hdg="-0.43771193" length="9.75133546">
                <line/>
            </geometry>
            <geometry s="73.68018450" x="383.29137959" y="447.51172586" hdg="-0.43771193" length="8.33333331">
                <paramPoly3 aU="0.00000000" bU="6.24999997" cU="6.24999997" dU="-4.16666668" aV="0.00000000" bV="0.00000000" cV="0.00114532" dV="-0.00038177" pRange="normalized"/>
            </geometry>
            <geometry s="82.01351780" x="390.83940212" y="443.98018233" hdg="-0.43752868" length="10.26864962">
                <line/>
            </geometry>
            <geometry s="92.28216742" x="400.14076070" y="439.62933257" hdg="-0.43752868" length="5.55206941">
                <paramPoly3 aU="0.00000000" bU="4.16405102" cU="4.16401528" dU="-2.77601471" aV="0.00000000" bV="0.00000000" cV="0.02989985" dV="-0.01639043" pRange="normalized"/>
            </geometry>
            <geometry s="97.83423683" x="405.17554152" y="437.28915277" hdg="-0.43497625" length="7.87284495">
                <paramPoly3 aU="0.00000000" bU="5.90463306" cU="5.90464043" dU="-3.93642944" aV="0.00000000" bV="0.00000000" cV="0.01137104" dV="-0.01070923" pRange="normalized"/>
            </geometry>
            <geometry s="105.70708178" x="412.31554560" y="433.97222414" hdg="-0.43656579" length="8.33329460">
                <paramPoly3 aU="0.00000000" bU="6.24996690" cU="6.25000873" dU="-4.16669684" aV="0.00000000" bV="0.00000000" cV="-0.00930413" dV="-0.00387184" pRange="normalized"/>
            </geometry>
            <geometry s="114.04037638" x="419.86166741" y="430.43672495" hdg="-0.44140163" length="8.24132089">
                <line/>
            </geometry>
        </planView>
        <elevationProfile>
            <elevation s="0" a="0.00" b="0" c="0" d="0"/>
        </elevationProfile>
        <lateralProfile/>
        <lanes>
            <laneSection s="0">
                <center>
                    <lane id="0" type="none" level="true">
                        <link/>
                        <roadMark sOffset="0" type="solid" weight="standard" color="standard" width="0.13" laneChange="none"/>
                    </lane>
                </center>
                <right>
                    <lane id="-1" type="driving" level="true">
                        <link/>
                        <width sOffset="0" a="3.35" b="0" c="0" d="0"/>
                        <roadMark sOffset="0" type="solid" weight="standard" color="standard" width="0.13" laneChange="none"/>
                        <speed sOffset="0" max="8.33"/>
                    </lane>
                    <lane id="-2" type="sidewalk" level="true">
                        <link/>
                        <width sOffset="0" a="2.80" b="0" c="0" d="0"/>
                        <roadMark sOffset="0" type="solid" weight="standard" color="standard" width="0.13" laneChange="none"/>
                        <speed sOffset="0" max="8.33"/>
                    </lane>
                 </right>
            </laneSection>
        </lanes>
        <objects/>
    </road>
    <road name="Guerickestraße" length="413.32361555" id="265" junction="-1">
        <link>
            <predecessor elementType="junction" elementId="7"/>
            <successor elementType="junction" elementId="3"/>
        </link>
        <type s="0" type="town"/>
        <planView>
            <geometry s="0.00000000" x="147.65296312" y="265.57019152" hdg="-0.39360681" length="46.06349382">
                <line/>
            </geometry>
            <geometry s="46.06349382" x="190.19406352" y="247.90383253" hdg="-0.39360681" length="8.33331574">
                <paramPoly3 aU="0.00000000" bU="6.24998334" cU="6.24998334" dU="-4.16667778" aV="0.00000000" bV="0.00000000" cV="0.02886467" dV="-0.00962161" pRange="normalized"/>
            </geometry>
            <geometry s="54.39680955" x="197.89750077" y="244.72560526" hdg="-0.38898846" length="81.23839562">
                <line/>
            </geometry>
            <geometry s="135.63520518" x="273.06683280" y="213.91572948" hdg="-0.38898846" length="7.96279935">
                <paramPoly3 aU="0.00000000" bU="5.95295620" cU="5.91781577" dU="-4.06753953" aV="0.00000000" bV="0.00000000" cV="2.29982205" dV="-0.84727365" pRange="normalized"/>
            </geometry>
            <geometry s="143.59800453" x="280.83799324" y="212.30036610" hdg="-0.03602416" length="7.82266385">
                <paramPoly3 aU="0.00000000" bU="5.84916389" cU="5.84639820" dU="-4.01168831" aV="0.00000000" bV="0.00000000" cV="2.03177680" dV="-0.69735042" pRange="normalized"/>
            </geometry>
            <geometry s="151.42066838" x="288.56494291" y="213.35718151" hdg="0.30776520" length="4.75893977">
                <paramPoly3 aU="0.00000000" bU="3.54962072" cU="3.33738536" dU="-2.34594157" aV="0.00000000" bV="-0.00000000" cV="2.43684781" dV="-1.10328478" pRange="normalized"/>
            </geometry>
            <geometry s="156.17960815" x="292.48866042" y="216.00370720" hdg="0.76399398" length="8.06131876">
                <paramPoly3 aU="0.00000000" bU="6.02219379" cU="6.31113061" dU="-4.34403295" aV="0.00000000" bV="0.00000000" cV="0.22677407" dV="0.57669673" pRange="normalized"/>
            </geometry>
            <geometry s="164.24092691" x="297.70170771" y="222.11095546" hdg="1.13504860" length="51.75439582">
                <line/>
            </geometry>
            <geometry s="215.99532273" x="319.54663640" y="269.02914571" hdg="1.13504860" length="6.46133587">
                <paramPoly3 aU="0.00000000" bU="4.79574049" cU="4.26331448" dU="-3.15314339" aV="0.00000000" bV="0.00000000" cV="-4.51111223" dV="2.06008286" pRange="normalized"/>
            </geometry>
            <geometry s="222.45665859" x="324.26144518" y="273.34862656" hdg="0.50076056" length="7.27906813">
                <paramPoly3 aU="0.00000000" bU="5.43190857" cU="5.46885604" dU="-3.82071775" aV="0.00000000" bV="0.00000000" cV="-2.24813323" dV="0.72255431" pRange="normalized"/>
            </geometry>
            <geometry s="229.73572672" x="331.20460697" y="275.40944169" hdg="0.05771856" length="17.56460649">
                <line/>
            </geometry>
            <geometry s="247.30033322" x="348.73996394" y="276.42268260" hdg="0.05771856" length="2.19336030">
                <paramPoly3 aU="0.00000000" bU="1.64498934" cU="1.64531021" dU="-1.09698411" aV="0.00000000" bV="-0.00000000" cV="0.04509372" dV="-0.04107687" pRange="normalized"/>
            </geometry>
            <geometry s="249.49369351" x="350.92939524" y="276.55321747" hdg="0.03763004" length="9.92210907">
                <line/>
            </geometry>
            <geometry s="259.41580258" x="360.84448019" y="276.92649868" hdg="0.03763004" length="8.22562706">
                <paramPoly3 aU="0.00000000" bU="6.16177762" cU="5.91642311" dU="-3.97846666" aV="0.00000000" bV="0.00000000" cV="3.00708680" dV="-1.63155346" pRange="normalized"/>
            </geometry>
            <geometry s="267.64142965" x="368.88673109" y="278.60577958" hdg="0.22033149" length="0.78040728">
                <paramPoly3 aU="0.00000000" bU="0.58270279" cU="0.60350323" dU="-0.41843246" aV="0.00000000" bV="0.00000000" cV="0.12465985" dV="-0.00568528" pRange="normalized"/>
            </geometry>
            <geometry s="268.42183693" x="369.60994151" y="278.88967725" hdg="0.63031856" length="8.00978284">
                <paramPoly3 aU="0.00000000" bU="6.00513393" cU="6.03403692" dU="-4.03474744" aV="0.00000000" bV="0.00000000" cV="-0.06733828" dV="0.26425621" pRange="normalized"/>
            </geometry>
            <geometry s="276.43161977" x="375.96016939" y="283.76657960" hdg="0.74012734" length="3.51271291">
                <paramPoly3 aU="0.00000000" bU="2.62925498" cU="2.51787816" dU="-1.70833113" aV="0.00000000" bV="0.00000000" cV="1.36519246" dV="-0.68373368" pRange="normalized"/>
            </geometry>
            <geometry s="279.94433268" x="378.03975776" y="286.58882296" hdg="1.00140804" length="8.30071705">
                <paramPoly3 aU="0.00000000" bU="6.22277676" cU="6.25877946" dU="-4.18770833" aV="0.00000000" bV="-0.00000000" cV="-0.06175396" dV="0.29172838" pRange="normalized"/>
            </geometry>
            <geometry s="288.24504973" x="382.31742010" y="293.69814120" hdg="1.12249825" length="21.19789818">
                <line/>
            </geometry>
            <geometry s="309.44294791" x="391.50527625" y="312.80139189" hdg="1.12249825" length="8.33331443">
                <paramPoly3 aU="0.00000000" bU="6.24998210" cU="6.24998210" dU="-4.16667860" aV="0.00000000" bV="-0.00000000" cV="0.02991717" dV="-0.00997245" pRange="normalized"/>
            </geometry>
            <geometry s="317.77626234" x="395.09921842" y="320.31987753" hdg="1.12728500" length="95.54735320">
                <line/>
            </geometry>
        </planView>
        <elevationProfile>
            <elevation s="0" a="0.00" b="0" c="0" d="0"/>
        </elevationProfile>
        <lateralProfile/>
        <lanes>
            <laneSection s="0">
                <center>
                    <lane id="0" type="none" level="true">
                        <link/>
                        <roadMark sOffset="0" type="solid" weight="standard" color="standard" width="0.13" laneChange="none"/>
                    </lane>
                </center>
                <right>
                    <lane id="-1" type="driving" level="true">
                        <link/>
                        <width sOffset="0" a="3.35" b="0" c="0" d="0"/>
                        <roadMark sOffset="0" type="solid" weight="standard" color="standard" width="0.13" laneChange="none"/>
                        <speed sOffset="0" max="8.33"/>
                    </lane>
                    <lane id="-2" type="sidewalk" level="true">
                        <link/>
                        <width sOffset="0" a="2.80" b="0" c="0" d="0"/>
                        <roadMark sOffset="0" type="solid" weight="standard" color="standard" width="0.13" laneChange="none"/>
                        <speed sOffset="0" max="8.33"/>
                    </lane>
                 </right>
            </laneSection>
        </lanes>
        <objects/>
    </road>
    <road name="Theodor-Dombart-Straße" length="109.21898292" id="266" junction="-1">
        <link>
            <predecessor elementType="junction" elementId="8"/>
            <successor elementType="junction" elementId="9"/>
        </link>
        <type s="0" type="town"/>
        <planView>
            <geometry s="0.00000000" x="179.70230774" y="97.43104644" hdg="-2.03942436" length="20.11837692">
                <line/>
            </geometry>
            <geometry s="20.11837692" x="170.61558818" y="79.48165599" hdg="-2.03942436" length="8.33324640">
                <paramPoly3 aU="-0.00000000" bU="6.24992756" cU="6.24975539" dU="-4.16654278" aV="0.00000000" bV="-0.00000000" cV="0.08202693" dV="-0.04190658" pRange="normalized"/>
            </geometry>
            <geometry s="28.45162331" x="166.88761488" y="72.02880084" hdg="-2.03329079" length="3.14464365">
                <paramPoly3 aU="-0.00000000" bU="2.35848165" cU="2.35843340" dU="-1.57229206" aV="0.00000000" bV="0.00000000" cV="0.02632294" dV="-0.01533098" pRange="normalized"/>
            </geometry>
            <geometry s="31.59626697" x="165.49437821" y="69.20964030" hdg="-2.03046993" length="8.33333010">
                <paramPoly3 aU="-0.00000000" bU="6.24999730" cU="6.25000087" dU="-4.16666871" aV="0.00000000" bV="-0.00000000" cV="0.00103418" dV="-0.00315556" pRange="normalized"/>
            </geometry>
            <geometry s="39.92959706" x="161.79534866" y="61.74227364" hdg="-2.03165366" length="15.04765242">
                <line/>
            </geometry>
            <geometry s="54.97724948" x="155.10341453" y="48.26451934" hdg="-2.03165366" length="3.34153232">
                <paramPoly3 aU="-0.00000000" bU="2.50569022" cU="2.48522924" dU="-1.65701619" aV="0.00000000" bV="0.00000000" cV="-0.59488171" dV="0.37846220" pRange="normalized"/>
            </geometry>
            <geometry s="58.31878180" x="153.42693308" y="45.37468226" hdg="-2.05335670" length="35.57677721">
                <line/>
            </geometry>
            <geometry s="93.89555901" x="136.91757602" y="13.86042824" hdg="-2.05335670" length="8.33054199">
                <paramPoly3 aU="-0.00000000" bU="6.24735722" cU="6.24735499" dU="-4.16842480" aV="0.00000000" bV="-0.00000000" cV="0.36347082" dV="-0.12125936" pRange="normalized"/>
            </geometry>
            <geometry s="102.22610100" x="133.26832648" y="6.37252425" hdg="-1.99519316" length="6.99288192">
                <line/>
            </geometry>
        </planView>
        <elevationProfile>
            <elevation s="0" a="0.00" b="0" c="0" d="0"/>
        </elevationProfile>
        <lateralProfile/>
        <lanes>
            <laneSection s="0">
                <center>
                    <lane id="0" type="none" level="true">
                        <link/>
                        <roadMark sOffset="0" type="solid" weight="standard" color="standard" width="0.13" laneChange="none"/>
                    </lane>
                </center>
                <right>
                    <lane id="-1" type="driving" level="true">
                        <link/>
                        <width sOffset="0" a="3.35" b="0" c="0" d="0"/>
                        <roadMark sOffset="0" type="solid" weight="standard" color="standard" width="0.13" laneChange="none"/>
                        <speed sOffset="0" max="8.33"/>
                    </lane>
                    <lane id="-2" type="sidewalk" level="true">
                        <link/>
                        <width sOffset="0" a="2.80" b="0" c="0" d="0"/>
                        <roadMark sOffset="0" type="solid" weight="standard" color="standard" width="0.13" laneChange="none"/>
                        <speed sOffset="0" max="8.33"/>
                    </lane>
                 </right>
            </laneSection>
        </lanes>
        <objects/>
    </road>
    <road name="Schenkendorfstraße" length="58.66380566" id="267" junction="-1">
        <link>
            <predecessor elementType="junction" elementId="10"/>
            <successor elementType="junction" elementId="11"/>
        </link>
        <type s="0" type="town"/>
        <planView>
            <geometry s="0.00000000" x="249.91540357" y="91.23225565" hdg="-0.50279461" length="58.66380566">
                <line/>
            </geometry>
        </planView>
        <elevationProfile>
            <elevation s="0" a="0.00" b="0" c="0" d="0"/>
        </elevationProfile>
        <lateralProfile/>
        <lanes>
            <laneSection s="0">
                <center>
                    <lane id="0" type="none" level="true">
                        <link/>
                        <roadMark sOffset="0" type="solid" weight="standard" color="standard" width="0.13" laneChange="none"/>
                    </lane>
                </center>
                <right>
                    <lane id="-1" type="driving" level="true">
                        <link/>
                        <width sOffset="0" a="3.35" b="0" c="0" d="0"/>
                        <roadMark sOffset="0" type="broken" weight="standard" color="standard" width="0.13" laneChange="both"/>
                        <speed sOffset="0" max="13.89"/>
                    </lane>
                    <lane id="-2" type="driving" level="true">
                        <link/>
                        <width sOffset="0" a="3.35" b="0" c="0" d="0"/>
                        <roadMark sOffset="0" type="broken" weight="standard" color="standard" width="0.13" laneChange="both"/>
                        <speed sOffset="0" max="13.89"/>
                    </lane>